<?xml version="1.0" encoding="UTF-8"?>

<!-- generated on Sun May 19 23:15:31 2019 by Eclipse SUMO Version 1.0.1
<configuration xmlns:xsi="http://www.w3.org/2001/XMLSchema-instance" xsi:noNamespaceSchemaLocation="http://sumo.dlr.de/xsd/sumoConfiguration.xsd">

    <input>
        <net-file value="roadfile/cross.net.xml"/>
        <route-files value="roadfile/cross.rou.xml"/>
        <additional-files value="roadfile/cross.det.xml"/>
    </input>

    <output>
        <tripinfo-output value="tripinfo.xml"/>
    </output>

    <time>
        <begin value="0"/>
    </time>

    <report>
        <verbose value="true"/>
        <no-step-log value="true"/>
    </report>

    <traci_server>
        <remote-port value="51050"/>
    </traci_server>

</configuration>
